LTspice 26.0.1 for Windows
Circuit: Z:\home\yuki\Documents\Projects\EEE3-Instrumentation\Simulations\fr this time\Iamp.net
Start Time: Tue Mar 24 19:22:22 2026
solver = Normal
Maximum thread count: 16
tnom = 27
temp = 27
method = trap
Compress1stOrder = true
Compress2ndOrder = true
Direct Newton iteration succeeded in finding operating point.
Total elapsed time: 0.316 seconds.

Files loaded:
Z:\home\yuki\Documents\Projects\EEE3-Instrumentation\Simulations\fr this time\Iamp.net
Z:\home\yuki\Documents\Projects\EEE3-Instrumentation\Simulations\fr this time\INA828.LIB
Z:\home\yuki\Documents\Projects\EEE3-Instrumentation\Simulations\fr this time\OPAx197.LIB

