LTspice 26.0.1 for Windows
Circuit: Z:\home\yuki\Documents\Projects\EEE3-Instrumentation\Simulations\fr this time\Top.net
Start Time: Tue Mar 24 22:21:42 2026
solver = Normal
Maximum thread count: 16
tnom = 27
temp = 27
method = trap
Compress1stOrder = true
Compress2ndOrder = true
C1: Increased Cpar to 2.2e-10
Direct Newton iteration succeeded in finding operating point.
Total elapsed time: 0.907 seconds.

Files loaded:
Z:\home\yuki\Documents\Projects\EEE3-Instrumentation\Simulations\fr this time\Top.net
C:\users\yuki\AppData\Local\LTspice\lib\cmp\standard.bjt
Z:\home\yuki\Documents\Projects\EEE3-Instrumentation\Simulations\fr this time\INA828.LIB
Z:\home\yuki\Documents\Projects\EEE3-Instrumentation\Simulations\fr this time\OPAx197.LIB

