Circuit: * E:\Git\Group Project\EEE3-Instrumentation\Simulations\Mini Driver\driver.asc

Direct Newton iteration for .op point succeeded.

Date: Sun Mar 01 15:13:22 2026
Total elapsed time: 0.036 seconds.

tnom = 27
temp = 27
method = modified trap
totiter = 3977
traniter = 3970
tranpoints = 1198
accept = 898
rejected = 300
matrix size = 9
fillins = 1
solver = Normal
Matrix Compiler1:      23 opcodes  0.1/[0.0]/0.0
Matrix Compiler2:      53 opcodes  0.1/[0.1]/0.1

