LTspice 26.0.1 for Windows
Circuit: C:\users\yuki\Documents\Projects\EEE3-Instrumentation\Simulations\TIA\ctest.net
Start Time: Sun Jan 18 22:21:33 2026
solver = Normal
Maximum thread count: 12
tnom = 27
temp = 27
method = trap
WARNING: Node nc_01 is floating.
WARNING: Node nc_02 is floating.
WARNING: Node nc_03 is floating.
WARNING: Node nc_13 is floating.
WARNING: Node nc_14 is floating.
WARNING: Node nc_15 is floating.

Instance "u8:M5": Length shorter than recommended for a level 2 MOSFET.
Instance "u8:M6": Length shorter than recommended for a level 2 MOSFET.
Instance "u8:M1": Length shorter than recommended for a level 2 MOSFET.
Instance "u8:M2": Length shorter than recommended for a level 2 MOSFET.
Instance "u8:M3": Length shorter than recommended for a level 2 MOSFET.
Instance "u8:M4": Length shorter than recommended for a level 2 MOSFET.
Instance "u3:M5": Length shorter than recommended for a level 2 MOSFET.
Instance "u3:M6": Length shorter than recommended for a level 2 MOSFET.
Instance "u3:M1": Length shorter than recommended for a level 2 MOSFET.
Instance "u3:M2": Length shorter than recommended for a level 2 MOSFET.
Instance "u3:M3": Length shorter than recommended for a level 2 MOSFET.
Instance "u3:M4": Length shorter than recommended for a level 2 MOSFET.
Instance "u4:M5": Length shorter than recommended for a level 2 MOSFET.
Instance "u4:M6": Length shorter than recommended for a level 2 MOSFET.
Instance "u4:M1": Length shorter than recommended for a level 2 MOSFET.
Instance "u4:M2": Length shorter than recommended for a level 2 MOSFET.
Instance "u4:M3": Length shorter than recommended for a level 2 MOSFET.
Instance "u4:M4": Length shorter than recommended for a level 2 MOSFET.
Instance "u10:M5": Length shorter than recommended for a level 2 MOSFET.
Instance "u10:M6": Length shorter than recommended for a level 2 MOSFET.
Instance "u10:M1": Length shorter than recommended for a level 2 MOSFET.
Instance "u10:M2": Length shorter than recommended for a level 2 MOSFET.
Instance "u10:M3": Length shorter than recommended for a level 2 MOSFET.
Instance "u10:M4": Length shorter than recommended for a level 2 MOSFET.
Direct Newton iteration failed to find operating point.
Starting Gmin stepping
Gmin stepping failed to find operating point. Use".option gminsteps=0" to skip all Gmin stepping.
Starting source stepping with srcstepmethod=0
Starting source stepping with srcstepmethod=1
Source stepping succeeded in finding the operating point.

Total elapsed time: 39.994 seconds.

Files loaded:
C:\users\yuki\Documents\Projects\EEE3-Instrumentation\Simulations\TIA\ctest.net
C:\users\yuki\AppData\Local\LTspice\lib\sub\AD8651.lib
C:\users\yuki\AppData\Local\LTspice\lib\sub\ADA4610.lib
C:\users\yuki\AppData\Local\LTspice\lib\sub\ADG412.sub
C:\users\yuki\AppData\Local\LTspice\lib\sub\MAX333A.sub

