LTspice 26.0.1 for Windows
Circuit: C:\users\yuki\Documents\Projects\EEE3-Instrumentation\Simulations\TIA\Draft1.net
Start Time: Tue Jan 20 11:06:58 2026
solver = Normal
Maximum thread count: 12
tnom = 27
temp = 27
method = trap
.OP point found by inspection.
.OP point found by inspection.
Total elapsed time: 0.043 seconds.

Files loaded:
C:\users\yuki\Documents\Projects\EEE3-Instrumentation\Simulations\TIA\Draft1.net
C:\users\yuki\AppData\Local\LTspice\lib\sub\opamp.sub

