Circuit: * C:\Users\harry\Documents\GitHub\EEE3-Instrumentation\Simulations\More Complicated Buffer\buffer.asc

Warning: Multiple definitions of model "2scr375p" Type: BJT
Warning: Multiple definitions of model "bc857b" Type: BJT
Warning: Multiple definitions of model "bc847c" Type: BJT
Warning: Multiple definitions of model "bc847b" Type: BJT
WARNING: Node NC_02 is floating.

WARNING: Less than two connections to node nc_01.  This node is used by d3.
WARNING: Less than two connections to node nc_02.  This node is used by d3.
Direct Newton iteration for .op point succeeded.
Ignoring empty pin current: Ix(u1:1)
Ignoring empty pin current: Ix(u1:2)
Ignoring empty pin current: Ix(u1:1)
Ignoring empty pin current: Ix(u1:2)

Date: Sat Feb 28 13:01:20 2026
Total elapsed time: 0.141 seconds.

tnom = 27
temp = 27
method = modified trap
totiter = 1721
traniter = 1699
tranpoints = 630
accept = 434
rejected = 196
matrix size = 24
fillins = 14
solver = Normal
Avg thread counts: 4.5/9.4/9.4/4.5
Matrix Compiler1: 1.81 KB object code size  1.1/0.6/[0.4]
Matrix Compiler2: 1.96 KB object code size  0.5/0.5/[0.2]

