Circuit: * E:\Git\Group Project\EEE3-Instrumentation\Simulations\Buffer\buffer.asc

WARNING: Node NC_02 is floating.

WARNING: Less than two connections to node NC_01.  This node is used by D3.
WARNING: Less than two connections to node NC_02.  This node is used by D3.
Direct Newton iteration for .op point succeeded.
Ignoring empty pin current: Ix(u1:1)
Ignoring empty pin current: Ix(u1:2)
Ignoring empty pin current: Ix(u1:1)
Ignoring empty pin current: Ix(u1:2)

Date: Thu Feb 26 11:50:35 2026
Total elapsed time: 0.042 seconds.

tnom = 27
temp = 27
method = modified trap
totiter = 795
traniter = 773
tranpoints = 289
accept = 201
rejected = 88
matrix size = 26
fillins = 14
solver = Normal
Matrix Compiler1: 2.84 KB object code size  0.5/0.2/[0.2]
Matrix Compiler2: off  [0.2]/0.2/0.3

