Circuit: * E:\Git\Group Project\EEE3-Instrumentation\Simulations\Buffer\More Complicated Buffer\buffer.asc

I3: both pins shorted together -- ignoring.
WARNING: Node NC_02 is floating.
WARNING: Node NC_03 is floating.
WARNING: Node NC_04 is floating.

WARNING: Less than two connections to node NC_01.  This node is used by D3.
WARNING: Less than two connections to node NC_02.  This node is used by D3.
Direct Newton iteration for .op point succeeded.
Ignoring empty pin current: Ix(u1:1)
Ignoring empty pin current: Ix(u1:2)
Ignoring empty pin current: Ix(u1:1)
Ignoring empty pin current: Ix(u1:2)

Date: Sun Mar 01 15:03:43 2026
Total elapsed time: 0.075 seconds.

tnom = 27
temp = 27
method = modified trap
totiter = 3038
traniter = 3016
tranpoints = 797
accept = 549
rejected = 248
matrix size = 27
fillins = 10
solver = Normal
Matrix Compiler1: 1.85 KB object code size  0.4/0.1/[0.1]
Matrix Compiler2: 2.24 KB object code size  0.2/0.2/[0.1]

