Circuit: * E:\Git\Group Project\EEE3-Instrumentation\Simulations\Buffer\More Complicated Buffer\buffer.asc

I3: both pins shorted together -- ignoring.
WARNING: Specified period is not longer than the sum of Trise, Tfall, and Ton for i1.  Increasing period to 2.00001
WARNING: Node NC_02 is floating.
WARNING: Node NC_03 is floating.
WARNING: Node NC_04 is floating.
WARNING: Node NC_05 is floating.
WARNING: Node NC_06 is floating.

WARNING: Less than two connections to node NC_01.  This node is used by D3.
WARNING: Less than two connections to node NC_02.  This node is used by D3.
WARNING: Less than two connections to node NC_03.  This node is used by C1.
WARNING: Less than two connections to node NC_04.  This node is used by C2.
Direct Newton iteration for .op point succeeded.
Ignoring empty pin current: Ix(u1:1)
Ignoring empty pin current: Ix(u1:2)
Ignoring empty pin current: Ix(u1:1)
Ignoring empty pin current: Ix(u1:2)

Date: Sun Mar 01 12:13:28 2026
Total elapsed time: 0.065 seconds.

tnom = 27
temp = 27
method = modified trap
totiter = 986
traniter = 964
tranpoints = 432
accept = 290
rejected = 142
matrix size = 30
fillins = 11
solver = Normal
Matrix Compiler1: 1.95 KB object code size  0.3/0.2/[0.1]
Matrix Compiler2: 2.30 KB object code size  0.1/0.2/[0.1]

