Circuit: * E:\Git\Group Project\EEE3-Instrumentation\Simulations\Coursework Assignment 1 sims\Draft1.asc

Ignoring empty pin current: Ix(u1:1)
Ignoring empty pin current: Ix(u1:2)
.step f=10 rg=1000 gainbandwidth=15920
.step f=12.5893 rg=1000 gainbandwidth=15920
.step f=15.8489 rg=1000 gainbandwidth=15920
.step f=19.9526 rg=1000 gainbandwidth=15920
.step f=25.1189 rg=1000 gainbandwidth=15920
.step f=31.6228 rg=1000 gainbandwidth=15920
.step f=39.8107 rg=1000 gainbandwidth=15920
.step f=50.1187 rg=1000 gainbandwidth=15920
.step f=63.0957 rg=1000 gainbandwidth=15920
.step f=79.4328 rg=1000 gainbandwidth=15920
.step f=100 rg=1000 gainbandwidth=15920
.step f=125.893 rg=1000 gainbandwidth=15920
.step f=158.489 rg=1000 gainbandwidth=15920
.step f=199.526 rg=1000 gainbandwidth=15920
.step f=251.189 rg=1000 gainbandwidth=15920
.step f=316.228 rg=1000 gainbandwidth=15920
.step f=398.107 rg=1000 gainbandwidth=15920
.step f=501.187 rg=1000 gainbandwidth=15920
.step f=630.957 rg=1000 gainbandwidth=15920
.step f=794.328 rg=1000 gainbandwidth=15920
.step f=1000 rg=1000 gainbandwidth=15920
.step f=1258.93 rg=1000 gainbandwidth=15920
.step f=1584.89 rg=1000 gainbandwidth=15920
.step f=1995.26 rg=1000 gainbandwidth=15920
.step f=2511.89 rg=1000 gainbandwidth=15920
.step f=3162.28 rg=1000 gainbandwidth=15920
.step f=3981.07 rg=1000 gainbandwidth=15920
.step f=5011.87 rg=1000 gainbandwidth=15920
.step f=6309.57 rg=1000 gainbandwidth=15920
.step f=7943.28 rg=1000 gainbandwidth=15920
.step f=10000 rg=1000 gainbandwidth=15920
.step f=12589.3 rg=1000 gainbandwidth=15920
.step f=15848.9 rg=1000 gainbandwidth=15920
.step f=19952.6 rg=1000 gainbandwidth=15920
.step f=25118.9 rg=1000 gainbandwidth=15920
.step f=31622.8 rg=1000 gainbandwidth=15920
.step f=39810.7 rg=1000 gainbandwidth=15920
.step f=50118.7 rg=1000 gainbandwidth=15920
.step f=63095.7 rg=1000 gainbandwidth=15920
.step f=79432.8 rg=1000 gainbandwidth=15920
.step f=100000 rg=1000 gainbandwidth=15920
.step f=125893 rg=1000 gainbandwidth=15920
.step f=158489 rg=1000 gainbandwidth=15920
.step f=199526 rg=1000 gainbandwidth=15920
.step f=251189 rg=1000 gainbandwidth=15920
.step f=316228 rg=1000 gainbandwidth=15920
.step f=398107 rg=1000 gainbandwidth=15920
.step f=501187 rg=1000 gainbandwidth=15920
.step f=630957 rg=1000 gainbandwidth=15920
.step f=794328 rg=1000 gainbandwidth=15920
.step f=1e+006 rg=1000 gainbandwidth=15920
.step f=1.25893e+006 rg=1000 gainbandwidth=15920
.step f=1.58489e+006 rg=1000 gainbandwidth=15920
.step f=1.99526e+006 rg=1000 gainbandwidth=15920
.step f=2.51189e+006 rg=1000 gainbandwidth=15920
.step f=3.16228e+006 rg=1000 gainbandwidth=15920
.step f=3.98107e+006 rg=1000 gainbandwidth=15920
.step f=5.01187e+006 rg=1000 gainbandwidth=15920
.step f=6.30957e+006 rg=1000 gainbandwidth=15920
.step f=7.94328e+006 rg=1000 gainbandwidth=15920
.step f=1e+007 rg=1000 gainbandwidth=15920
.step f=10 rg=100000 gainbandwidth=15920
.step f=12.5893 rg=100000 gainbandwidth=15920
.step f=15.8489 rg=100000 gainbandwidth=15920
.step f=19.9526 rg=100000 gainbandwidth=15920
.step f=25.1189 rg=100000 gainbandwidth=15920
.step f=31.6228 rg=100000 gainbandwidth=15920
.step f=39.8107 rg=100000 gainbandwidth=15920
.step f=50.1187 rg=100000 gainbandwidth=15920
.step f=63.0957 rg=100000 gainbandwidth=15920
.step f=79.4328 rg=100000 gainbandwidth=15920
.step f=100 rg=100000 gainbandwidth=15920
.step f=125.893 rg=100000 gainbandwidth=15920
.step f=158.489 rg=100000 gainbandwidth=15920
.step f=199.526 rg=100000 gainbandwidth=15920
.step f=251.189 rg=100000 gainbandwidth=15920
.step f=316.228 rg=100000 gainbandwidth=15920
.step f=398.107 rg=100000 gainbandwidth=15920
.step f=501.187 rg=100000 gainbandwidth=15920
.step f=630.957 rg=100000 gainbandwidth=15920
.step f=794.328 rg=100000 gainbandwidth=15920
.step f=1000 rg=100000 gainbandwidth=15920
.step f=1258.93 rg=100000 gainbandwidth=15920
.step f=1584.89 rg=100000 gainbandwidth=15920
.step f=1995.26 rg=100000 gainbandwidth=15920
.step f=2511.89 rg=100000 gainbandwidth=15920
.step f=3162.28 rg=100000 gainbandwidth=15920
.step f=3981.07 rg=100000 gainbandwidth=15920
.step f=5011.87 rg=100000 gainbandwidth=15920
.step f=6309.57 rg=100000 gainbandwidth=15920
.step f=7943.28 rg=100000 gainbandwidth=15920
.step f=10000 rg=100000 gainbandwidth=15920
.step f=12589.3 rg=100000 gainbandwidth=15920
.step f=15848.9 rg=100000 gainbandwidth=15920
.step f=19952.6 rg=100000 gainbandwidth=15920
.step f=25118.9 rg=100000 gainbandwidth=15920
.step f=31622.8 rg=100000 gainbandwidth=15920
.step f=39810.7 rg=100000 gainbandwidth=15920
.step f=50118.7 rg=100000 gainbandwidth=15920
.step f=63095.7 rg=100000 gainbandwidth=15920
.step f=79432.8 rg=100000 gainbandwidth=15920
.step f=100000 rg=100000 gainbandwidth=15920
.step f=125893 rg=100000 gainbandwidth=15920
.step f=158489 rg=100000 gainbandwidth=15920
.step f=199526 rg=100000 gainbandwidth=15920
.step f=251189 rg=100000 gainbandwidth=15920
.step f=316228 rg=100000 gainbandwidth=15920
.step f=398107 rg=100000 gainbandwidth=15920
.step f=501187 rg=100000 gainbandwidth=15920
.step f=630957 rg=100000 gainbandwidth=15920
.step f=794328 rg=100000 gainbandwidth=15920
.step f=1e+006 rg=100000 gainbandwidth=15920
.step f=1.25893e+006 rg=100000 gainbandwidth=15920
.step f=1.58489e+006 rg=100000 gainbandwidth=15920
.step f=1.99526e+006 rg=100000 gainbandwidth=15920
.step f=2.51189e+006 rg=100000 gainbandwidth=15920
.step f=3.16228e+006 rg=100000 gainbandwidth=15920
.step f=3.98107e+006 rg=100000 gainbandwidth=15920
.step f=5.01187e+006 rg=100000 gainbandwidth=15920
.step f=6.30957e+006 rg=100000 gainbandwidth=15920
.step f=7.94328e+006 rg=100000 gainbandwidth=15920
.step f=1e+007 rg=100000 gainbandwidth=15920
.step f=10 rg=1e+008 gainbandwidth=15920
.step f=12.5893 rg=1e+008 gainbandwidth=15920
.step f=15.8489 rg=1e+008 gainbandwidth=15920
.step f=19.9526 rg=1e+008 gainbandwidth=15920
.step f=25.1189 rg=1e+008 gainbandwidth=15920
.step f=31.6228 rg=1e+008 gainbandwidth=15920
.step f=39.8107 rg=1e+008 gainbandwidth=15920
.step f=50.1187 rg=1e+008 gainbandwidth=15920
.step f=63.0957 rg=1e+008 gainbandwidth=15920
.step f=79.4328 rg=1e+008 gainbandwidth=15920
.step f=100 rg=1e+008 gainbandwidth=15920
.step f=125.893 rg=1e+008 gainbandwidth=15920
.step f=158.489 rg=1e+008 gainbandwidth=15920
.step f=199.526 rg=1e+008 gainbandwidth=15920
.step f=251.189 rg=1e+008 gainbandwidth=15920
.step f=316.228 rg=1e+008 gainbandwidth=15920
.step f=398.107 rg=1e+008 gainbandwidth=15920
.step f=501.187 rg=1e+008 gainbandwidth=15920
.step f=630.957 rg=1e+008 gainbandwidth=15920
.step f=794.328 rg=1e+008 gainbandwidth=15920
.step f=1000 rg=1e+008 gainbandwidth=15920
.step f=1258.93 rg=1e+008 gainbandwidth=15920
.step f=1584.89 rg=1e+008 gainbandwidth=15920
.step f=1995.26 rg=1e+008 gainbandwidth=15920
.step f=2511.89 rg=1e+008 gainbandwidth=15920
.step f=3162.28 rg=1e+008 gainbandwidth=15920
.step f=3981.07 rg=1e+008 gainbandwidth=15920
.step f=5011.87 rg=1e+008 gainbandwidth=15920
.step f=6309.57 rg=1e+008 gainbandwidth=15920
.step f=7943.28 rg=1e+008 gainbandwidth=15920
.step f=10000 rg=1e+008 gainbandwidth=15920
.step f=12589.3 rg=1e+008 gainbandwidth=15920
.step f=15848.9 rg=1e+008 gainbandwidth=15920
.step f=19952.6 rg=1e+008 gainbandwidth=15920
.step f=25118.9 rg=1e+008 gainbandwidth=15920
.step f=31622.8 rg=1e+008 gainbandwidth=15920
.step f=39810.7 rg=1e+008 gainbandwidth=15920
.step f=50118.7 rg=1e+008 gainbandwidth=15920
.step f=63095.7 rg=1e+008 gainbandwidth=15920
.step f=79432.8 rg=1e+008 gainbandwidth=15920
.step f=100000 rg=1e+008 gainbandwidth=15920
.step f=125893 rg=1e+008 gainbandwidth=15920
.step f=158489 rg=1e+008 gainbandwidth=15920
.step f=199526 rg=1e+008 gainbandwidth=15920
.step f=251189 rg=1e+008 gainbandwidth=15920
.step f=316228 rg=1e+008 gainbandwidth=15920
.step f=398107 rg=1e+008 gainbandwidth=15920
.step f=501187 rg=1e+008 gainbandwidth=15920
.step f=630957 rg=1e+008 gainbandwidth=15920
.step f=794328 rg=1e+008 gainbandwidth=15920
.step f=1e+006 rg=1e+008 gainbandwidth=15920
.step f=1.25893e+006 rg=1e+008 gainbandwidth=15920
.step f=1.58489e+006 rg=1e+008 gainbandwidth=15920
.step f=1.99526e+006 rg=1e+008 gainbandwidth=15920
.step f=2.51189e+006 rg=1e+008 gainbandwidth=15920
.step f=3.16228e+006 rg=1e+008 gainbandwidth=15920
.step f=3.98107e+006 rg=1e+008 gainbandwidth=15920
.step f=5.01187e+006 rg=1e+008 gainbandwidth=15920
.step f=6.30957e+006 rg=1e+008 gainbandwidth=15920
.step f=7.94328e+006 rg=1e+008 gainbandwidth=15920
.step f=1e+007 rg=1e+008 gainbandwidth=15920
.step f=10 rg=1000 gainbandwidth=1592
.step f=12.5893 rg=1000 gainbandwidth=1592
.step f=15.8489 rg=1000 gainbandwidth=1592
.step f=19.9526 rg=1000 gainbandwidth=1592
.step f=25.1189 rg=1000 gainbandwidth=1592
.step f=31.6228 rg=1000 gainbandwidth=1592
.step f=39.8107 rg=1000 gainbandwidth=1592
.step f=50.1187 rg=1000 gainbandwidth=1592
.step f=63.0957 rg=1000 gainbandwidth=1592
.step f=79.4328 rg=1000 gainbandwidth=1592
.step f=100 rg=1000 gainbandwidth=1592
.step f=125.893 rg=1000 gainbandwidth=1592
.step f=158.489 rg=1000 gainbandwidth=1592
.step f=199.526 rg=1000 gainbandwidth=1592
.step f=251.189 rg=1000 gainbandwidth=1592
.step f=316.228 rg=1000 gainbandwidth=1592
.step f=398.107 rg=1000 gainbandwidth=1592
.step f=501.187 rg=1000 gainbandwidth=1592
.step f=630.957 rg=1000 gainbandwidth=1592
.step f=794.328 rg=1000 gainbandwidth=1592
.step f=1000 rg=1000 gainbandwidth=1592
.step f=1258.93 rg=1000 gainbandwidth=1592
.step f=1584.89 rg=1000 gainbandwidth=1592
.step f=1995.26 rg=1000 gainbandwidth=1592
.step f=2511.89 rg=1000 gainbandwidth=1592
.step f=3162.28 rg=1000 gainbandwidth=1592
.step f=3981.07 rg=1000 gainbandwidth=1592
.step f=5011.87 rg=1000 gainbandwidth=1592
.step f=6309.57 rg=1000 gainbandwidth=1592
.step f=7943.28 rg=1000 gainbandwidth=1592
.step f=10000 rg=1000 gainbandwidth=1592
.step f=12589.3 rg=1000 gainbandwidth=1592
.step f=15848.9 rg=1000 gainbandwidth=1592
.step f=19952.6 rg=1000 gainbandwidth=1592
.step f=25118.9 rg=1000 gainbandwidth=1592
.step f=31622.8 rg=1000 gainbandwidth=1592
.step f=39810.7 rg=1000 gainbandwidth=1592
.step f=50118.7 rg=1000 gainbandwidth=1592
.step f=63095.7 rg=1000 gainbandwidth=1592
.step f=79432.8 rg=1000 gainbandwidth=1592
.step f=100000 rg=1000 gainbandwidth=1592
.step f=125893 rg=1000 gainbandwidth=1592
.step f=158489 rg=1000 gainbandwidth=1592
.step f=199526 rg=1000 gainbandwidth=1592
.step f=251189 rg=1000 gainbandwidth=1592
.step f=316228 rg=1000 gainbandwidth=1592
.step f=398107 rg=1000 gainbandwidth=1592
.step f=501187 rg=1000 gainbandwidth=1592
.step f=630957 rg=1000 gainbandwidth=1592
.step f=794328 rg=1000 gainbandwidth=1592
.step f=1e+006 rg=1000 gainbandwidth=1592
.step f=1.25893e+006 rg=1000 gainbandwidth=1592
.step f=1.58489e+006 rg=1000 gainbandwidth=1592
.step f=1.99526e+006 rg=1000 gainbandwidth=1592
.step f=2.51189e+006 rg=1000 gainbandwidth=1592
.step f=3.16228e+006 rg=1000 gainbandwidth=1592
.step f=3.98107e+006 rg=1000 gainbandwidth=1592
.step f=5.01187e+006 rg=1000 gainbandwidth=1592
.step f=6.30957e+006 rg=1000 gainbandwidth=1592
.step f=7.94328e+006 rg=1000 gainbandwidth=1592
.step f=1e+007 rg=1000 gainbandwidth=1592
.step f=10 rg=100000 gainbandwidth=1592
.step f=12.5893 rg=100000 gainbandwidth=1592
.step f=15.8489 rg=100000 gainbandwidth=1592
.step f=19.9526 rg=100000 gainbandwidth=1592
.step f=25.1189 rg=100000 gainbandwidth=1592
.step f=31.6228 rg=100000 gainbandwidth=1592
.step f=39.8107 rg=100000 gainbandwidth=1592
.step f=50.1187 rg=100000 gainbandwidth=1592
.step f=63.0957 rg=100000 gainbandwidth=1592
.step f=79.4328 rg=100000 gainbandwidth=1592
.step f=100 rg=100000 gainbandwidth=1592
.step f=125.893 rg=100000 gainbandwidth=1592
.step f=158.489 rg=100000 gainbandwidth=1592
.step f=199.526 rg=100000 gainbandwidth=1592
.step f=251.189 rg=100000 gainbandwidth=1592
.step f=316.228 rg=100000 gainbandwidth=1592
.step f=398.107 rg=100000 gainbandwidth=1592
.step f=501.187 rg=100000 gainbandwidth=1592
.step f=630.957 rg=100000 gainbandwidth=1592
.step f=794.328 rg=100000 gainbandwidth=1592
.step f=1000 rg=100000 gainbandwidth=1592
.step f=1258.93 rg=100000 gainbandwidth=1592
.step f=1584.89 rg=100000 gainbandwidth=1592
.step f=1995.26 rg=100000 gainbandwidth=1592
.step f=2511.89 rg=100000 gainbandwidth=1592
.step f=3162.28 rg=100000 gainbandwidth=1592
.step f=3981.07 rg=100000 gainbandwidth=1592
.step f=5011.87 rg=100000 gainbandwidth=1592
.step f=6309.57 rg=100000 gainbandwidth=1592
.step f=7943.28 rg=100000 gainbandwidth=1592
.step f=10000 rg=100000 gainbandwidth=1592
.step f=12589.3 rg=100000 gainbandwidth=1592
.step f=15848.9 rg=100000 gainbandwidth=1592
.step f=19952.6 rg=100000 gainbandwidth=1592
.step f=25118.9 rg=100000 gainbandwidth=1592
.step f=31622.8 rg=100000 gainbandwidth=1592
.step f=39810.7 rg=100000 gainbandwidth=1592
.step f=50118.7 rg=100000 gainbandwidth=1592
.step f=63095.7 rg=100000 gainbandwidth=1592
.step f=79432.8 rg=100000 gainbandwidth=1592
.step f=100000 rg=100000 gainbandwidth=1592
.step f=125893 rg=100000 gainbandwidth=1592
.step f=158489 rg=100000 gainbandwidth=1592
.step f=199526 rg=100000 gainbandwidth=1592
.step f=251189 rg=100000 gainbandwidth=1592
.step f=316228 rg=100000 gainbandwidth=1592
.step f=398107 rg=100000 gainbandwidth=1592
.step f=501187 rg=100000 gainbandwidth=1592
.step f=630957 rg=100000 gainbandwidth=1592
.step f=794328 rg=100000 gainbandwidth=1592
.step f=1e+006 rg=100000 gainbandwidth=1592
.step f=1.25893e+006 rg=100000 gainbandwidth=1592
.step f=1.58489e+006 rg=100000 gainbandwidth=1592
.step f=1.99526e+006 rg=100000 gainbandwidth=1592
.step f=2.51189e+006 rg=100000 gainbandwidth=1592
.step f=3.16228e+006 rg=100000 gainbandwidth=1592
.step f=3.98107e+006 rg=100000 gainbandwidth=1592
.step f=5.01187e+006 rg=100000 gainbandwidth=1592
.step f=6.30957e+006 rg=100000 gainbandwidth=1592
.step f=7.94328e+006 rg=100000 gainbandwidth=1592
.step f=1e+007 rg=100000 gainbandwidth=1592
.step f=10 rg=1e+008 gainbandwidth=1592
.step f=12.5893 rg=1e+008 gainbandwidth=1592
.step f=15.8489 rg=1e+008 gainbandwidth=1592
.step f=19.9526 rg=1e+008 gainbandwidth=1592
.step f=25.1189 rg=1e+008 gainbandwidth=1592
.step f=31.6228 rg=1e+008 gainbandwidth=1592
.step f=39.8107 rg=1e+008 gainbandwidth=1592
.step f=50.1187 rg=1e+008 gainbandwidth=1592
.step f=63.0957 rg=1e+008 gainbandwidth=1592
.step f=79.4328 rg=1e+008 gainbandwidth=1592
.step f=100 rg=1e+008 gainbandwidth=1592
.step f=125.893 rg=1e+008 gainbandwidth=1592
.step f=158.489 rg=1e+008 gainbandwidth=1592
.step f=199.526 rg=1e+008 gainbandwidth=1592
.step f=251.189 rg=1e+008 gainbandwidth=1592
.step f=316.228 rg=1e+008 gainbandwidth=1592
.step f=398.107 rg=1e+008 gainbandwidth=1592
.step f=501.187 rg=1e+008 gainbandwidth=1592
.step f=630.957 rg=1e+008 gainbandwidth=1592
.step f=794.328 rg=1e+008 gainbandwidth=1592
.step f=1000 rg=1e+008 gainbandwidth=1592
.step f=1258.93 rg=1e+008 gainbandwidth=1592
.step f=1584.89 rg=1e+008 gainbandwidth=1592
.step f=1995.26 rg=1e+008 gainbandwidth=1592
.step f=2511.89 rg=1e+008 gainbandwidth=1592
.step f=3162.28 rg=1e+008 gainbandwidth=1592
.step f=3981.07 rg=1e+008 gainbandwidth=1592
.step f=5011.87 rg=1e+008 gainbandwidth=1592
.step f=6309.57 rg=1e+008 gainbandwidth=1592
.step f=7943.28 rg=1e+008 gainbandwidth=1592
.step f=10000 rg=1e+008 gainbandwidth=1592
.step f=12589.3 rg=1e+008 gainbandwidth=1592
.step f=15848.9 rg=1e+008 gainbandwidth=1592
.step f=19952.6 rg=1e+008 gainbandwidth=1592
.step f=25118.9 rg=1e+008 gainbandwidth=1592
.step f=31622.8 rg=1e+008 gainbandwidth=1592
.step f=39810.7 rg=1e+008 gainbandwidth=1592
.step f=50118.7 rg=1e+008 gainbandwidth=1592
.step f=63095.7 rg=1e+008 gainbandwidth=1592
.step f=79432.8 rg=1e+008 gainbandwidth=1592
.step f=100000 rg=1e+008 gainbandwidth=1592
.step f=125893 rg=1e+008 gainbandwidth=1592
.step f=158489 rg=1e+008 gainbandwidth=1592
.step f=199526 rg=1e+008 gainbandwidth=1592
.step f=251189 rg=1e+008 gainbandwidth=1592
.step f=316228 rg=1e+008 gainbandwidth=1592
.step f=398107 rg=1e+008 gainbandwidth=1592
.step f=501187 rg=1e+008 gainbandwidth=1592
.step f=630957 rg=1e+008 gainbandwidth=1592
.step f=794328 rg=1e+008 gainbandwidth=1592
.step f=1e+006 rg=1e+008 gainbandwidth=1592
.step f=1.25893e+006 rg=1e+008 gainbandwidth=1592
.step f=1.58489e+006 rg=1e+008 gainbandwidth=1592
.step f=1.99526e+006 rg=1e+008 gainbandwidth=1592
.step f=2.51189e+006 rg=1e+008 gainbandwidth=1592
.step f=3.16228e+006 rg=1e+008 gainbandwidth=1592
.step f=3.98107e+006 rg=1e+008 gainbandwidth=1592
.step f=5.01187e+006 rg=1e+008 gainbandwidth=1592
.step f=6.30957e+006 rg=1e+008 gainbandwidth=1592
.step f=7.94328e+006 rg=1e+008 gainbandwidth=1592
.step f=1e+007 rg=1e+008 gainbandwidth=1592
.step f=10 rg=1000 gainbandwidth=159.2
.step f=12.5893 rg=1000 gainbandwidth=159.2
.step f=15.8489 rg=1000 gainbandwidth=159.2
.step f=19.9526 rg=1000 gainbandwidth=159.2
.step f=25.1189 rg=1000 gainbandwidth=159.2
.step f=31.6228 rg=1000 gainbandwidth=159.2
.step f=39.8107 rg=1000 gainbandwidth=159.2
.step f=50.1187 rg=1000 gainbandwidth=159.2
.step f=63.0957 rg=1000 gainbandwidth=159.2
.step f=79.4328 rg=1000 gainbandwidth=159.2
.step f=100 rg=1000 gainbandwidth=159.2
.step f=125.893 rg=1000 gainbandwidth=159.2
.step f=158.489 rg=1000 gainbandwidth=159.2
.step f=199.526 rg=1000 gainbandwidth=159.2
.step f=251.189 rg=1000 gainbandwidth=159.2
.step f=316.228 rg=1000 gainbandwidth=159.2
.step f=398.107 rg=1000 gainbandwidth=159.2
.step f=501.187 rg=1000 gainbandwidth=159.2
.step f=630.957 rg=1000 gainbandwidth=159.2
.step f=794.328 rg=1000 gainbandwidth=159.2
.step f=1000 rg=1000 gainbandwidth=159.2
.step f=1258.93 rg=1000 gainbandwidth=159.2
.step f=1584.89 rg=1000 gainbandwidth=159.2
.step f=1995.26 rg=1000 gainbandwidth=159.2
.step f=2511.89 rg=1000 gainbandwidth=159.2
.step f=3162.28 rg=1000 gainbandwidth=159.2
.step f=3981.07 rg=1000 gainbandwidth=159.2
.step f=5011.87 rg=1000 gainbandwidth=159.2
.step f=6309.57 rg=1000 gainbandwidth=159.2
.step f=7943.28 rg=1000 gainbandwidth=159.2
.step f=10000 rg=1000 gainbandwidth=159.2
.step f=12589.3 rg=1000 gainbandwidth=159.2
.step f=15848.9 rg=1000 gainbandwidth=159.2
.step f=19952.6 rg=1000 gainbandwidth=159.2
.step f=25118.9 rg=1000 gainbandwidth=159.2
.step f=31622.8 rg=1000 gainbandwidth=159.2
.step f=39810.7 rg=1000 gainbandwidth=159.2
.step f=50118.7 rg=1000 gainbandwidth=159.2
.step f=63095.7 rg=1000 gainbandwidth=159.2
.step f=79432.8 rg=1000 gainbandwidth=159.2
.step f=100000 rg=1000 gainbandwidth=159.2
.step f=125893 rg=1000 gainbandwidth=159.2
.step f=158489 rg=1000 gainbandwidth=159.2
.step f=199526 rg=1000 gainbandwidth=159.2
.step f=251189 rg=1000 gainbandwidth=159.2
.step f=316228 rg=1000 gainbandwidth=159.2
.step f=398107 rg=1000 gainbandwidth=159.2
.step f=501187 rg=1000 gainbandwidth=159.2
.step f=630957 rg=1000 gainbandwidth=159.2
.step f=794328 rg=1000 gainbandwidth=159.2
.step f=1e+006 rg=1000 gainbandwidth=159.2
.step f=1.25893e+006 rg=1000 gainbandwidth=159.2
.step f=1.58489e+006 rg=1000 gainbandwidth=159.2
.step f=1.99526e+006 rg=1000 gainbandwidth=159.2
.step f=2.51189e+006 rg=1000 gainbandwidth=159.2
.step f=3.16228e+006 rg=1000 gainbandwidth=159.2
.step f=3.98107e+006 rg=1000 gainbandwidth=159.2
.step f=5.01187e+006 rg=1000 gainbandwidth=159.2
.step f=6.30957e+006 rg=1000 gainbandwidth=159.2
.step f=7.94328e+006 rg=1000 gainbandwidth=159.2
.step f=1e+007 rg=1000 gainbandwidth=159.2
.step f=10 rg=100000 gainbandwidth=159.2
.step f=12.5893 rg=100000 gainbandwidth=159.2
.step f=15.8489 rg=100000 gainbandwidth=159.2
.step f=19.9526 rg=100000 gainbandwidth=159.2
.step f=25.1189 rg=100000 gainbandwidth=159.2
.step f=31.6228 rg=100000 gainbandwidth=159.2
.step f=39.8107 rg=100000 gainbandwidth=159.2
.step f=50.1187 rg=100000 gainbandwidth=159.2
.step f=63.0957 rg=100000 gainbandwidth=159.2
.step f=79.4328 rg=100000 gainbandwidth=159.2
.step f=100 rg=100000 gainbandwidth=159.2
.step f=125.893 rg=100000 gainbandwidth=159.2
.step f=158.489 rg=100000 gainbandwidth=159.2
.step f=199.526 rg=100000 gainbandwidth=159.2
.step f=251.189 rg=100000 gainbandwidth=159.2
.step f=316.228 rg=100000 gainbandwidth=159.2
.step f=398.107 rg=100000 gainbandwidth=159.2
.step f=501.187 rg=100000 gainbandwidth=159.2
.step f=630.957 rg=100000 gainbandwidth=159.2
.step f=794.328 rg=100000 gainbandwidth=159.2
.step f=1000 rg=100000 gainbandwidth=159.2
.step f=1258.93 rg=100000 gainbandwidth=159.2
.step f=1584.89 rg=100000 gainbandwidth=159.2
.step f=1995.26 rg=100000 gainbandwidth=159.2
.step f=2511.89 rg=100000 gainbandwidth=159.2
.step f=3162.28 rg=100000 gainbandwidth=159.2
.step f=3981.07 rg=100000 gainbandwidth=159.2
.step f=5011.87 rg=100000 gainbandwidth=159.2
.step f=6309.57 rg=100000 gainbandwidth=159.2
.step f=7943.28 rg=100000 gainbandwidth=159.2
.step f=10000 rg=100000 gainbandwidth=159.2
.step f=12589.3 rg=100000 gainbandwidth=159.2
.step f=15848.9 rg=100000 gainbandwidth=159.2
.step f=19952.6 rg=100000 gainbandwidth=159.2
.step f=25118.9 rg=100000 gainbandwidth=159.2
.step f=31622.8 rg=100000 gainbandwidth=159.2
.step f=39810.7 rg=100000 gainbandwidth=159.2
.step f=50118.7 rg=100000 gainbandwidth=159.2
.step f=63095.7 rg=100000 gainbandwidth=159.2
.step f=79432.8 rg=100000 gainbandwidth=159.2
.step f=100000 rg=100000 gainbandwidth=159.2
.step f=125893 rg=100000 gainbandwidth=159.2
.step f=158489 rg=100000 gainbandwidth=159.2
.step f=199526 rg=100000 gainbandwidth=159.2
.step f=251189 rg=100000 gainbandwidth=159.2
.step f=316228 rg=100000 gainbandwidth=159.2
.step f=398107 rg=100000 gainbandwidth=159.2
.step f=501187 rg=100000 gainbandwidth=159.2
.step f=630957 rg=100000 gainbandwidth=159.2
.step f=794328 rg=100000 gainbandwidth=159.2
.step f=1e+006 rg=100000 gainbandwidth=159.2
.step f=1.25893e+006 rg=100000 gainbandwidth=159.2
.step f=1.58489e+006 rg=100000 gainbandwidth=159.2
.step f=1.99526e+006 rg=100000 gainbandwidth=159.2
.step f=2.51189e+006 rg=100000 gainbandwidth=159.2
.step f=3.16228e+006 rg=100000 gainbandwidth=159.2
.step f=3.98107e+006 rg=100000 gainbandwidth=159.2
.step f=5.01187e+006 rg=100000 gainbandwidth=159.2
.step f=6.30957e+006 rg=100000 gainbandwidth=159.2
.step f=7.94328e+006 rg=100000 gainbandwidth=159.2
.step f=1e+007 rg=100000 gainbandwidth=159.2
.step f=10 rg=1e+008 gainbandwidth=159.2
.step f=12.5893 rg=1e+008 gainbandwidth=159.2
.step f=15.8489 rg=1e+008 gainbandwidth=159.2
.step f=19.9526 rg=1e+008 gainbandwidth=159.2
.step f=25.1189 rg=1e+008 gainbandwidth=159.2
.step f=31.6228 rg=1e+008 gainbandwidth=159.2
.step f=39.8107 rg=1e+008 gainbandwidth=159.2
.step f=50.1187 rg=1e+008 gainbandwidth=159.2
.step f=63.0957 rg=1e+008 gainbandwidth=159.2
.step f=79.4328 rg=1e+008 gainbandwidth=159.2
.step f=100 rg=1e+008 gainbandwidth=159.2
.step f=125.893 rg=1e+008 gainbandwidth=159.2
.step f=158.489 rg=1e+008 gainbandwidth=159.2
.step f=199.526 rg=1e+008 gainbandwidth=159.2
.step f=251.189 rg=1e+008 gainbandwidth=159.2
.step f=316.228 rg=1e+008 gainbandwidth=159.2
.step f=398.107 rg=1e+008 gainbandwidth=159.2
.step f=501.187 rg=1e+008 gainbandwidth=159.2
.step f=630.957 rg=1e+008 gainbandwidth=159.2
.step f=794.328 rg=1e+008 gainbandwidth=159.2
.step f=1000 rg=1e+008 gainbandwidth=159.2
.step f=1258.93 rg=1e+008 gainbandwidth=159.2
.step f=1584.89 rg=1e+008 gainbandwidth=159.2
.step f=1995.26 rg=1e+008 gainbandwidth=159.2
.step f=2511.89 rg=1e+008 gainbandwidth=159.2
.step f=3162.28 rg=1e+008 gainbandwidth=159.2
.step f=3981.07 rg=1e+008 gainbandwidth=159.2
.step f=5011.87 rg=1e+008 gainbandwidth=159.2
.step f=6309.57 rg=1e+008 gainbandwidth=159.2
.step f=7943.28 rg=1e+008 gainbandwidth=159.2
.step f=10000 rg=1e+008 gainbandwidth=159.2
.step f=12589.3 rg=1e+008 gainbandwidth=159.2
.step f=15848.9 rg=1e+008 gainbandwidth=159.2
.step f=19952.6 rg=1e+008 gainbandwidth=159.2
.step f=25118.9 rg=1e+008 gainbandwidth=159.2
.step f=31622.8 rg=1e+008 gainbandwidth=159.2
.step f=39810.7 rg=1e+008 gainbandwidth=159.2
.step f=50118.7 rg=1e+008 gainbandwidth=159.2
.step f=63095.7 rg=1e+008 gainbandwidth=159.2
.step f=79432.8 rg=1e+008 gainbandwidth=159.2
.step f=100000 rg=1e+008 gainbandwidth=159.2
.step f=125893 rg=1e+008 gainbandwidth=159.2
.step f=158489 rg=1e+008 gainbandwidth=159.2
.step f=199526 rg=1e+008 gainbandwidth=159.2
.step f=251189 rg=1e+008 gainbandwidth=159.2
.step f=316228 rg=1e+008 gainbandwidth=159.2
.step f=398107 rg=1e+008 gainbandwidth=159.2
.step f=501187 rg=1e+008 gainbandwidth=159.2
.step f=630957 rg=1e+008 gainbandwidth=159.2
.step f=794328 rg=1e+008 gainbandwidth=159.2
.step f=1e+006 rg=1e+008 gainbandwidth=159.2
.step f=1.25893e+006 rg=1e+008 gainbandwidth=159.2
.step f=1.58489e+006 rg=1e+008 gainbandwidth=159.2
.step f=1.99526e+006 rg=1e+008 gainbandwidth=159.2
.step f=2.51189e+006 rg=1e+008 gainbandwidth=159.2
.step f=3.16228e+006 rg=1e+008 gainbandwidth=159.2
.step f=3.98107e+006 rg=1e+008 gainbandwidth=159.2
.step f=5.01187e+006 rg=1e+008 gainbandwidth=159.2
.step f=6.30957e+006 rg=1e+008 gainbandwidth=159.2
.step f=7.94328e+006 rg=1e+008 gainbandwidth=159.2
.step f=1e+007 rg=1e+008 gainbandwidth=159.2

Date: Fri Jan 23 00:33:21 2026
Total elapsed time: 7.255 seconds.

tnom = 27
temp = 27
method = trap
totiter = 0
traniter = 0
tranpoints = 0
accept = 0
rejected = 0
matrix size = 5
fillins = 0
solver = Normal

