LTspice 26.0.1 for Windows
Circuit: C:\users\yuki\Documents\Projects\EEE3-Instrumentation\Simulations\InAmpStage2\Draft1.net
Start Time: Fri Jan 23 23:17:16 2026
solver = Normal
Maximum thread count: 12
tnom = 27
temp = 27
method = trap
Direct Newton iteration failed to find operating point.
Starting Gmin stepping
Gmin stepping succeeded in finding the operating point.

Total elapsed time: 0.159 seconds.

Files loaded:
C:\users\yuki\Documents\Projects\EEE3-Instrumentation\Simulations\InAmpStage2\Draft1.net
C:\users\yuki\AppData\Local\LTspice\lib\sub\opamp.sub
C:\users\yuki\AppData\Local\LTspice\lib\sub\ADG1412.sub
C:\users\yuki\AppData\Local\LTspice\lib\sub\ADI1.lib

