Circuit: * E:\Git\Group Project\EEE3-Instrumentation\Simulations\Buffer\buffer.asc

Direct Newton iteration for .op point succeeded.
Ignoring empty pin current: Ix(u1:1)
Ignoring empty pin current: Ix(u1:2)
Ignoring empty pin current: Ix(u1:1)
Ignoring empty pin current: Ix(u1:2)

Date: Wed Feb 25 23:32:06 2026
Total elapsed time: 0.039 seconds.

tnom = 27
temp = 27
method = modified trap
totiter = 435
traniter = 430
tranpoints = 216
accept = 148
rejected = 68
matrix size = 18
fillins = 18
solver = Normal
Matrix Compiler1: 1.84 KB object code size  0.3/0.1/[0.1]
Matrix Compiler2: off  [0.1]/0.2/0.2

