Circuit: * C:\Users\harry\Documents\GitHub\EEE3-Instrumentation\Simulations\Buffer\buffer.asc

Warning: Multiple definitions of model "2scr375p" Type: BJT
Warning: Multiple definitions of model "bc857b" Type: BJT
Warning: Multiple definitions of model "bc847c" Type: BJT
Warning: Multiple definitions of model "bc847b" Type: BJT
WARNING: Specified period is not longer than the sum of Trise, Tfall, and Ton for v4.  Increasing period to 2.00001
WARNING: Less than two connections to node nc_01.  This node is used by v4.
Direct Newton iteration for .op point succeeded.
Ignoring empty pin current: Ix(u1:1)
Ignoring empty pin current: Ix(u1:2)
Ignoring empty pin current: Ix(u1:1)
Ignoring empty pin current: Ix(u1:2)

Date: Sat Feb 28 13:08:15 2026
Total elapsed time: 0.140 seconds.

tnom = 27
temp = 27
method = modified trap
totiter = 509
traniter = 498
tranpoints = 250
accept = 176
rejected = 74
matrix size = 15
fillins = 5
solver = Normal
Avg thread counts: 10.9/15.0/15.0/10.9
Matrix Compiler1: 1014 bytes object code size  0.4/0.2/[0.2]
Matrix Compiler2: 1.24 KB object code size  0.2/0.2/[0.2]

