Circuit: * E:\Git\Group Project\EEE3-Instrumentation\Simulations\Buffer\buffer.asc

WARNING: Node NC_02 is floating.

WARNING: Less than two connections to node NC_01.  This node is used by D3.
WARNING: Less than two connections to node NC_02.  This node is used by D3.
Direct Newton iteration for .op point succeeded.
Ignoring empty pin current: Ix(u1:1)
Ignoring empty pin current: Ix(u1:2)
Ignoring empty pin current: Ix(u1:1)
Ignoring empty pin current: Ix(u1:2)

Date: Thu Feb 26 11:31:47 2026
Total elapsed time: 0.067 seconds.

tnom = 27
temp = 27
method = modified trap
totiter = 773
traniter = 751
tranpoints = 220
accept = 154
rejected = 66
matrix size = 31
fillins = 23
solver = Normal
Matrix Compiler1:     193 opcodes  0.5/[0.2]/0.2
Matrix Compiler2: off  [0.2]/0.2/0.2

