Circuit: * E:\Git\Group Project\EEE3-Instrumentation\Simulations\Buffer\buffer.asc

WARNING: Specified period is not longer than the sum of Trise, Tfall, and Ton for v4.  Increasing period to 2.00001
WARNING: Less than two connections to node NC_01.  This node is used by V4.
Direct Newton iteration for .op point succeeded.
Ignoring empty pin current: Ix(u1:1)
Ignoring empty pin current: Ix(u1:2)
Ignoring empty pin current: Ix(u1:1)
Ignoring empty pin current: Ix(u1:2)

Date: Sun Mar 01 19:07:52 2026
Total elapsed time: 0.038 seconds.

tnom = 27
temp = 27
method = modified trap
totiter = 498
traniter = 486
tranpoints = 244
accept = 173
rejected = 71
matrix size = 16
fillins = 9
solver = Normal
Matrix Compiler1: 1.37 KB object code size  0.2/0.1/[0.1]
Matrix Compiler2: off  [0.1]/0.1/0.1

