Circuit: * E:\Git\Group Project\EEE3-Instrumentation\Simulations\Buffer\buffer.asc

WARNING: Specified period is not longer than the sum of Trise, Tfall, and Ton for v4.  Increasing period to 2.00001
WARNING: Less than two connections to node NC_01.  This node is used by V4.
Direct Newton iteration for .op point succeeded.
Ignoring empty pin current: Ix(u1:1)
Ignoring empty pin current: Ix(u1:2)
Ignoring empty pin current: Ix(u1:1)
Ignoring empty pin current: Ix(u1:2)

Date: Thu Feb 26 21:45:10 2026
Total elapsed time: 0.043 seconds.

tnom = 27
temp = 27
method = modified trap
totiter = 509
traniter = 498
tranpoints = 250
accept = 176
rejected = 74
matrix size = 17
fillins = 4
solver = Normal
Matrix Compiler1: 1.05 KB object code size  0.2/0.1/[0.1]
Matrix Compiler2: off  [0.1]/0.1/0.1

