Circuit: * E:\Git\Group Project\EEE3-Instrumentation\Simulations\Buffer\buffer.asc

WARNING: Specified period is not longer than the sum of Trise, Tfall, and Ton for v4.  Increasing period to 2.00001
WARNING: Less than two connections to node NC_01.  This node is used by V4.
Direct Newton iteration for .op point succeeded.
Ignoring empty pin current: Ix(u1:1)
Ignoring empty pin current: Ix(u1:2)
Ignoring empty pin current: Ix(u1:1)
Ignoring empty pin current: Ix(u1:2)

Date: Thu Feb 26 14:58:57 2026
Total elapsed time: 0.041 seconds.

tnom = 27
temp = 27
method = modified trap
totiter = 529
traniter = 518
tranpoints = 238
accept = 172
rejected = 66
matrix size = 20
fillins = 10
solver = Normal
Matrix Compiler1:      91 opcodes  0.3/[0.1]/0.1
Matrix Compiler2: off  [0.1]/0.1/0.1

