Circuit: * E:\Git\Group Project\EEE3-Instrumentation\Simulations\Buffer\buffer.asc

WARNING: Specified period is not longer than the sum of Trise, Tfall, and Ton for v4.  Increasing period to 2.00001
WARNING: Less than two connections to node NC_01.  This node is used by V4.
Direct Newton iteration for .op point succeeded.
Ignoring empty pin current: Ix(u1:1)
Ignoring empty pin current: Ix(u1:2)
Ignoring empty pin current: Ix(u1:1)
Ignoring empty pin current: Ix(u1:2)
Changing Tseed to 1e-016
Heightened Def Con from 1.08e-015 to 2e-009

Date: Thu Feb 26 17:28:36 2026
Total elapsed time: 0.041 seconds.

tnom = 27
temp = 27
method = modified trap
totiter = 576
traniter = 565
tranpoints = 242
accept = 161
rejected = 81
matrix size = 19
fillins = 8
solver = Normal
Matrix Compiler1:      84 opcodes  0.3/[0.1]/0.1
Matrix Compiler2: off  [0.1]/0.1/0.1

