LTspice 26.0.1 for Windows
Circuit: Z:\home\yuki\Documents\Projects\EEE3-Instrumentation\Simulations\big.net
Start Time: Mon Mar 23 22:01:37 2026
solver = Normal
Maximum thread count: 16
tnom = 27
temp = 27
method = trap
Compress1stOrder = true
Compress2ndOrder = true
Direct Newton iteration succeeded in finding operating point.
Total elapsed time: 0.746 seconds.

Files loaded:
Z:\home\yuki\Documents\Projects\EEE3-Instrumentation\Simulations\big.net
Z:\home\yuki\Documents\Projects\EEE3-Instrumentation\Simulations\INA828.LIB
Z:\home\yuki\Documents\Projects\EEE3-Instrumentation\Simulations\OPAx197.LIB

