LTspice 26.0.1 for Windows
Circuit: Z:\home\yuki\Documents\Projects\EEE3-Instrumentation\Simulations\whole.net
Start Time: Mon Mar 23 21:32:07 2026
solver = Normal
Maximum thread count: 16
tnom = 27
temp = 27
method = trap
Compress1stOrder = true
Compress2ndOrder = true
Direct Newton iteration failed to find operating point.
Starting Gmin stepping
Gmin stepping failed to find operating point. Use".option gminsteps=0" to skip all Gmin stepping.
Starting source stepping with srcstepmethod=0
Starting source stepping with srcstepmethod=1
Source stepping failed to find operating point. Use ".options srcsteps=0" to skip all source stepping.
Starting Gmin stepping level 2
Gmin stepping level 2 failed to find operating point. Use".option gminsteps=0" to skip all Gmin stepping.
Starting source stepping with srcstepmethod=1, level 2
Starting source stepping with srcstepmethod=0, level 2
Source stepping level 2 failed to find operating point. Use ".options srcsteps=0" to skip all source stepping.
Pseudo Transient succeeded in finding the operating point at 30.2156 s
Total elapsed time: 70.687 seconds.

Files loaded:
Z:\home\yuki\Documents\Projects\EEE3-Instrumentation\Simulations\whole.net
C:\users\yuki\AppData\Local\LTspice\lib\cmp\standard.bjt
C:\users\yuki\AppData\Local\LTspice\lib\sub\Contrib\Toshiba\DIODE\BAV99_enc.lib
Z:\home\yuki\Documents\Projects\EEE3-Instrumentation\Simulations\OPAx197.LIB

