Circuit: * E:\Git\Group Project\EEE3-Instrumentation\Simulations\ABB\Draft1.asc

Ignoring empty pin current: Ix(u1:1)
Ignoring empty pin current: Ix(u1:2)
.step rg=1000 pole=10 aol=100000
.step rg=100000 pole=10 aol=100000
.step rg=1e+007 pole=10 aol=100000
.step rg=1000 pole=100 aol=100000
.step rg=100000 pole=100 aol=100000
.step rg=1e+007 pole=100 aol=100000
.step rg=1000 pole=10 aol=1e+006
.step rg=100000 pole=10 aol=1e+006
.step rg=1e+007 pole=10 aol=1e+006
.step rg=1000 pole=100 aol=1e+006
.step rg=100000 pole=100 aol=1e+006
.step rg=1e+007 pole=100 aol=1e+006

Date: Sat Feb 28 20:22:53 2026
Total elapsed time: 0.172 seconds.

tnom = 27
temp = 27
method = trap
totiter = 0
traniter = 0
tranpoints = 0
accept = 0
rejected = 0
matrix size = 4
fillins = 1
solver = Normal

